<?xml version="1.0" encoding="UTF-8"?>

<!-- generated on 2024-02-18 16:34:38 by Eclipse SUMO netedit Version 1.19.0
-->

<routes xmlns:xsi="http://www.w3.org/2001/XMLSchema-instance" xsi:noNamespaceSchemaLocation="http://sumo.dlr.de/xsd/routes_file.xsd">
    <!-- Vehicles, persons and containers (sorted by depart) -->
    <flow id="f_0" begin="0.00" from="-E2" to="W1" end="3600.00" vehsPerHour="1800"/>
    <flow id="f_1" begin="0.00" from="-E2" to="N1" end="3600.00" vehsPerHour="1800"/>
    <flow id="f_10" begin="0.00" from="-S2" to="E2" end="3600.00" vehsPerHour="1800"/>
    <flow id="f_11" begin="0.00" from="-N1" to="S1" end="3600.00" vehsPerHour="1800"/>
    <flow id="f_12" begin="0.00" from="-N1" to="E2" end="3600.00" vehsPerHour="1800"/>
    <flow id="f_13" begin="0.00" from="-N1" to="W1" end="3600.00" vehsPerHour="1800"/>
    <flow id="f_14" begin="0.00" from="-S1" to="N1" end="3600.00" vehsPerHour="1800"/>
    <flow id="f_15" begin="0.00" from="-S1" to="W1" end="3600.00" vehsPerHour="1800"/>
    <flow id="f_16" begin="0.00" from="-S1" to="E2" end="3600.00" vehsPerHour="1800"/>
    <flow id="f_17" begin="0.00" from="-W1" to="E2" end="3600.00" vehsPerHour="1800"/>
    <flow id="f_18" begin="0.00" from="-W1" to="N1" end="3600.00" vehsPerHour="1800"/>
    <flow id="f_19" begin="0.00" from="-W1" to="N2" end="3600.00" vehsPerHour="1800"/>
    <flow id="f_2" begin="0.00" from="-E2" to="N2" end="3600.00" vehsPerHour="1800"/>
    <flow id="f_20" begin="0.00" from="-W1" to="S1" end="3600.00" vehsPerHour="1800"/>
    <flow id="f_21" begin="0.00" from="-W1" to="S2" end="3600.00" vehsPerHour="1800"/>
    <flow id="f_3" begin="0.00" from="-E2" to="S1" end="3600.00" vehsPerHour="1800"/>
    <flow id="f_4" begin="0.00" from="-E2" to="S2" end="3600.00" vehsPerHour="1800"/>
    <flow id="f_5" begin="0.00" from="-N2" to="W1" end="3600.00" vehsPerHour="1800"/>
    <flow id="f_6" begin="0.00" from="-N2" to="S2" end="3600.00" vehsPerHour="1800"/>
    <flow id="f_7" begin="0.00" from="-N2" to="E2" end="3600.00" vehsPerHour="1800"/>
    <flow id="f_8" begin="0.00" from="-S2" to="N2" end="3600.00" vehsPerHour="1800"/>
    <flow id="f_9" begin="0.00" from="-S2" to="W1" end="3600.00" vehsPerHour="1800"/>
</routes>
