<?xml version="1.0" encoding="UTF-8"?>

<!-- generated on 2024-02-18 15:38:47 by Eclipse SUMO netedit Version 1.19.0
<configuration xmlns:xsi="http://www.w3.org/2001/XMLSchema-instance" xsi:noNamespaceSchemaLocation="http://sumo.dlr.de/xsd/neteditConfiguration.xsd">

    <input>
        <sumocfg-file value="/Users/yuyanlin/Desktop/AdaptiveTrafficLight/Simulator/SimpleEnv.sumocfg"/>
        <route-files value="/Users/yuyanlin/Desktop/AdaptiveTrafficLight/Simulator/SimpleEnv.rou.xml"/>
        <sumo-net-file value="/Users/yuyanlin/Desktop/AdaptiveTrafficLight/Simulator/SimpleEnv.net.xml"/>
    </input>

    <output>
        <output-file value="/Users/yuyanlin/Desktop/AdaptiveTrafficLight/Simulator/SimpleEnv.net.xml"/>
    </output>

    <processing>
        <offset.disable-normalization value="true"/>
    </processing>

    <junctions>
        <no-turnarounds value="true"/>
    </junctions>

    <netedit>
        <new-network value="false"/>
    </netedit>

</configuration>
-->

<net version="1.16" junctionCornerDetail="5" limitTurnSpeed="5.50" xmlns:xsi="http://www.w3.org/2001/XMLSchema-instance" xsi:noNamespaceSchemaLocation="http://sumo.dlr.de/xsd/net_file.xsd">

    <location netOffset="0.00,0.00" convBoundary="0.00,0.00,200.00,200.00" origBoundary="10000000000.00,10000000000.00,-10000000000.00,-10000000000.00" projParameter="!"/>

    <edge id=":J10_0" function="internal">
        <lane id=":J10_0_0" index="0" speed="6.51" length="9.03" shape="92.00,113.60 91.65,111.15 90.60,109.40 88.85,108.35 86.40,108.00"/>
    </edge>
    <edge id=":J10_1" function="internal">
        <lane id=":J10_1_0" index="0" speed="13.89" length="27.20" shape="95.20,113.60 95.20,86.40"/>
    </edge>
    <edge id=":J10_2" function="internal">
        <lane id=":J10_2_0" index="0" speed="10.36" length="24.51" shape="98.40,113.60 99.35,106.95 102.20,102.20 106.95,99.35 113.60,98.40"/>
    </edge>
    <edge id=":J10_3" function="internal">
        <lane id=":J10_3_0" index="0" speed="6.51" length="9.03" shape="113.60,108.00 111.15,108.35 109.40,109.40 108.35,111.15 108.00,113.60"/>
    </edge>
    <edge id=":J10_4" function="internal">
        <lane id=":J10_4_0" index="0" speed="13.89" length="27.20" shape="113.60,104.80 86.40,104.80"/>
    </edge>
    <edge id=":J10_5" function="internal">
        <lane id=":J10_5_0" index="0" speed="10.36" length="24.51" shape="113.60,101.60 106.95,100.65 102.20,97.80 99.35,93.05 98.40,86.40"/>
    </edge>
    <edge id=":J10_6" function="internal">
        <lane id=":J10_6_0" index="0" speed="6.51" length="9.03" shape="108.00,86.40 108.35,88.85 109.40,90.60 111.15,91.65 113.60,92.00"/>
    </edge>
    <edge id=":J10_7" function="internal">
        <lane id=":J10_7_0" index="0" speed="13.89" length="27.20" shape="104.80,86.40 104.80,113.60"/>
    </edge>
    <edge id=":J10_8" function="internal">
        <lane id=":J10_8_0" index="0" speed="10.36" length="24.51" shape="101.60,86.40 100.65,93.05 97.80,97.80 93.05,100.65 86.40,101.60"/>
    </edge>
    <edge id=":J10_9" function="internal">
        <lane id=":J10_9_0" index="0" speed="6.51" length="9.03" shape="86.40,92.00 88.85,91.65 90.60,90.60 91.65,88.85 92.00,86.40"/>
    </edge>
    <edge id=":J10_10" function="internal">
        <lane id=":J10_10_0" index="0" speed="13.89" length="27.20" shape="86.40,95.20 113.60,95.20"/>
    </edge>
    <edge id=":J10_11" function="internal">
        <lane id=":J10_11_0" index="0" speed="10.36" length="24.51" shape="86.40,98.40 93.05,99.35 97.80,102.20 100.65,106.95 101.60,113.60"/>
    </edge>

    <edge id="-E1" from="J14" to="J10" priority="-1">
        <lane id="-E1_0" index="0" speed="13.89" length="86.40" shape="200.00,108.00 113.60,108.00"/>
        <lane id="-E1_1" index="1" speed="13.89" length="86.40" shape="200.00,104.80 113.60,104.80"/>
        <lane id="-E1_2" index="2" speed="13.89" length="86.40" shape="200.00,101.60 113.60,101.60"/>
    </edge>
    <edge id="-N1" from="J11" to="J10" priority="-1">
        <lane id="-N1_0" index="0" speed="13.89" length="86.40" shape="92.00,200.00 92.00,113.60"/>
        <lane id="-N1_1" index="1" speed="13.89" length="86.40" shape="95.20,200.00 95.20,113.60"/>
        <lane id="-N1_2" index="2" speed="13.89" length="86.40" shape="98.40,200.00 98.40,113.60"/>
    </edge>
    <edge id="-S1" from="J12" to="J10" priority="-1">
        <lane id="-S1_0" index="0" speed="13.89" length="86.40" shape="108.00,0.00 108.00,86.40"/>
        <lane id="-S1_1" index="1" speed="13.89" length="86.40" shape="104.80,0.00 104.80,86.40"/>
        <lane id="-S1_2" index="2" speed="13.89" length="86.40" shape="101.60,0.00 101.60,86.40"/>
    </edge>
    <edge id="-W1" from="J13" to="J10" priority="-1">
        <lane id="-W1_0" index="0" speed="13.89" length="86.40" shape="0.00,92.00 86.40,92.00"/>
        <lane id="-W1_1" index="1" speed="13.89" length="86.40" shape="0.00,95.20 86.40,95.20"/>
        <lane id="-W1_2" index="2" speed="13.89" length="86.40" shape="0.00,98.40 86.40,98.40"/>
    </edge>
    <edge id="E1" from="J10" to="J14" priority="-1">
        <lane id="E1_0" index="0" speed="13.89" length="86.40" shape="113.60,92.00 200.00,92.00"/>
        <lane id="E1_1" index="1" speed="13.89" length="86.40" shape="113.60,95.20 200.00,95.20"/>
        <lane id="E1_2" index="2" speed="13.89" length="86.40" shape="113.60,98.40 200.00,98.40"/>
    </edge>
    <edge id="N1" from="J10" to="J11" priority="-1">
        <lane id="N1_0" index="0" speed="13.89" length="86.40" shape="108.00,113.60 108.00,200.00"/>
        <lane id="N1_1" index="1" speed="13.89" length="86.40" shape="104.80,113.60 104.80,200.00"/>
        <lane id="N1_2" index="2" speed="13.89" length="86.40" shape="101.60,113.60 101.60,200.00"/>
    </edge>
    <edge id="S1" from="J10" to="J12" priority="-1">
        <lane id="S1_0" index="0" speed="13.89" length="86.40" shape="92.00,86.40 92.00,0.00"/>
        <lane id="S1_1" index="1" speed="13.89" length="86.40" shape="95.20,86.40 95.20,0.00"/>
        <lane id="S1_2" index="2" speed="13.89" length="86.40" shape="98.40,86.40 98.40,0.00"/>
    </edge>
    <edge id="W1" from="J10" to="J13" priority="-1">
        <lane id="W1_0" index="0" speed="13.89" length="86.40" shape="86.40,108.00 0.00,108.00"/>
        <lane id="W1_1" index="1" speed="13.89" length="86.40" shape="86.40,104.80 0.00,104.80"/>
        <lane id="W1_2" index="2" speed="13.89" length="86.40" shape="86.40,101.60 0.00,101.60"/>
    </edge>

    <tlLogic id="J10" type="static" programID="0" offset="0">
        <phase duration="20" state="grrggygrrggy"/>
        <phase duration="20" state="grggyrgrggyr"/>
        <phase duration="20" state="ggygrrggygrr"/>
        <phase duration="20" state="gyrgrggyrgrg"/>
    </tlLogic>

    <junction id="J10" type="traffic_light" x="100.00" y="100.00" incLanes="-N1_0 -N1_1 -N1_2 -E1_0 -E1_1 -E1_2 -S1_0 -S1_1 -S1_2 -W1_0 -W1_1 -W1_2" intLanes=":J10_0_0 :J10_1_0 :J10_2_0 :J10_3_0 :J10_4_0 :J10_5_0 :J10_6_0 :J10_7_0 :J10_8_0 :J10_9_0 :J10_10_0 :J10_11_0" shape="90.40,113.60 109.60,113.60 110.04,111.38 110.60,110.60 111.38,110.04 112.38,109.71 113.60,109.60 113.60,90.40 111.38,89.96 110.60,89.40 110.04,88.62 109.71,87.62 109.60,86.40 90.40,86.40 89.96,88.62 89.40,89.40 88.62,89.96 87.62,90.29 86.40,90.40 86.40,109.60 88.62,110.04 89.40,110.60 89.96,111.38 90.29,112.38">
        <request index="0"  response="000000000000" foes="000000000000" cont="0"/>
        <request index="1"  response="000000000000" foes="110100010000" cont="0"/>
        <request index="2"  response="000010000000" foes="100010110000" cont="0"/>
        <request index="3"  response="000000000000" foes="000000000000" cont="0"/>
        <request index="4"  response="000010000110" foes="100010000110" cont="0"/>
        <request index="5"  response="010110000100" foes="010110000100" cont="0"/>
        <request index="6"  response="000000000000" foes="000000000000" cont="0"/>
        <request index="7"  response="000000000000" foes="010000110100" cont="0"/>
        <request index="8"  response="000000000010" foes="110000100010" cont="0"/>
        <request index="9"  response="000000000000" foes="000000000000" cont="0"/>
        <request index="10" response="000110000010" foes="000110100010" cont="0"/>
        <request index="11" response="000100010110" foes="000100010110" cont="0"/>
    </junction>
    <junction id="J11" type="dead_end" x="100.00" y="200.00" incLanes="N1_0 N1_1 N1_2" intLanes="" shape="100.00,200.00 109.60,200.00 100.00,200.00"/>
    <junction id="J12" type="dead_end" x="100.00" y="0.00" incLanes="S1_0 S1_1 S1_2" intLanes="" shape="100.00,0.00 90.40,0.00 100.00,0.00"/>
    <junction id="J13" type="dead_end" x="0.00" y="100.00" incLanes="W1_0 W1_1 W1_2" intLanes="" shape="0.00,100.00 0.00,109.60 0.00,100.00"/>
    <junction id="J14" type="dead_end" x="200.00" y="100.00" incLanes="E1_0 E1_1 E1_2" intLanes="" shape="200.00,100.00 200.00,90.40 200.00,100.00"/>

    <connection from="-E1" to="N1" fromLane="0" toLane="0" via=":J10_3_0" tl="J10" linkIndex="3" dir="r" state="O"/>
    <connection from="-E1" to="W1" fromLane="1" toLane="1" via=":J10_4_0" tl="J10" linkIndex="4" dir="s" state="o"/>
    <connection from="-E1" to="S1" fromLane="2" toLane="2" via=":J10_5_0" tl="J10" linkIndex="5" dir="l" state="o"/>
    <connection from="-N1" to="W1" fromLane="0" toLane="0" via=":J10_0_0" tl="J10" linkIndex="0" dir="r" state="O"/>
    <connection from="-N1" to="S1" fromLane="1" toLane="1" via=":J10_1_0" tl="J10" linkIndex="1" dir="s" state="O"/>
    <connection from="-N1" to="E1" fromLane="2" toLane="2" via=":J10_2_0" tl="J10" linkIndex="2" dir="l" state="o"/>
    <connection from="-S1" to="E1" fromLane="0" toLane="0" via=":J10_6_0" tl="J10" linkIndex="6" dir="r" state="O"/>
    <connection from="-S1" to="N1" fromLane="1" toLane="1" via=":J10_7_0" tl="J10" linkIndex="7" dir="s" state="O"/>
    <connection from="-S1" to="W1" fromLane="2" toLane="2" via=":J10_8_0" tl="J10" linkIndex="8" dir="l" state="o"/>
    <connection from="-W1" to="S1" fromLane="0" toLane="0" via=":J10_9_0" tl="J10" linkIndex="9" dir="r" state="O"/>
    <connection from="-W1" to="E1" fromLane="1" toLane="1" via=":J10_10_0" tl="J10" linkIndex="10" dir="s" state="o"/>
    <connection from="-W1" to="N1" fromLane="2" toLane="2" via=":J10_11_0" tl="J10" linkIndex="11" dir="l" state="o"/>

    <connection from=":J10_0" to="W1" fromLane="0" toLane="0" dir="r" state="M"/>
    <connection from=":J10_1" to="S1" fromLane="0" toLane="1" dir="s" state="M"/>
    <connection from=":J10_2" to="E1" fromLane="0" toLane="2" dir="l" state="M"/>
    <connection from=":J10_3" to="N1" fromLane="0" toLane="0" dir="r" state="M"/>
    <connection from=":J10_4" to="W1" fromLane="0" toLane="1" dir="s" state="M"/>
    <connection from=":J10_5" to="S1" fromLane="0" toLane="2" dir="l" state="M"/>
    <connection from=":J10_6" to="E1" fromLane="0" toLane="0" dir="r" state="M"/>
    <connection from=":J10_7" to="N1" fromLane="0" toLane="1" dir="s" state="M"/>
    <connection from=":J10_8" to="W1" fromLane="0" toLane="2" dir="l" state="M"/>
    <connection from=":J10_9" to="S1" fromLane="0" toLane="0" dir="r" state="M"/>
    <connection from=":J10_10" to="E1" fromLane="0" toLane="1" dir="s" state="M"/>
    <connection from=":J10_11" to="N1" fromLane="0" toLane="2" dir="l" state="M"/>

</net>
