<?xml version="1.0" encoding="UTF-8"?>

<!-- generated on 2023-11-01 20:49:16 by Eclipse SUMO netedit Version 1.18.0
-->

<routes xmlns:xsi="http://www.w3.org/2001/XMLSchema-instance" xsi:noNamespaceSchemaLocation="http://sumo.dlr.de/xsd/routes_file.xsd">
    <!-- Routes -->
    <route id="e2n" edges="E2 E1"/>
    <route id="e2s" edges="E2 -E3"/>
    <route id="e2w" edges="E2 -E0"/>
    <route id="n2e" edges="-E1 -E2"/>
    <route id="n2s" edges="-E1 -E3"/>
    <route id="n2w" edges="-E1 -E0"/>
    <route id="s2e" edges="E3 -E2"/>
    <route id="s2n" edges="E3 E1"/>
    <route id="s2w" edges="E3 -E0"/>
    <route id="w2e" edges="E0 -E2"/>
    <route id="w2n" edges="E0 E1"/>
    <route id="w2s" edges="E0 -E3"/>
    <!-- Vehicles, persons and containers (sorted by depart) -->
    <flow id="e2n" begin="0.00" from="E2" to="E1" end="3600.00" number="1000"/>
    <flow id="e2s" begin="0.00" from="E2" to="-E3" end="3600.00" number="500"/>
    <flow id="e2w" begin="0.00" from="E2" to="-E0" end="3600.00" number="800"/>
    <flow id="n2e" begin="0.00" from="-E1" to="-E2" end="3600.00" number="500"/>
    <flow id="n2s" begin="0.00" from="-E1" to="-E3" end="3600.00" number="800"/>
    <flow id="n2w" begin="0.00" from="-E1" to="-E0" end="3600.00" number="1000"/>
    <flow id="s2e" begin="0.00" from="E3" to="-E2" end="3600.00" number="1000"/>
    <flow id="s2n" begin="0.00" from="E3" to="E1" end="3600.00" number="800"/>
    <flow id="s2w" begin="0.00" from="E3" to="-E0" end="3600.00" number="500"/>
    <flow id="w2e" begin="0.00" from="E0" to="-E2" end="3600.00" number="800"/>
    <flow id="w2n" begin="0.00" from="E0" to="E1" end="3600.00" number="500"/>
    <flow id="w2s" begin="0.00" from="E0" to="-E3" end="3600.00" number="1000"/>
</routes>
